35
Molecule 20
C 4.4803 1.6429 -0.0962
N 4.0499 0.2660 -0.3694
C 2.6677 -0.1296 -0.1661
C 1.6375 0.8315 -0.1308
C 0.3077 0.4506 0.0659
C -0.0323 -0.9020 0.2380
C -1.4439 -1.3177 0.4463
O -1.7601 -2.5350 0.3531
C -2.5098 -0.3343 0.7502
C -3.5393 -0.0742 -0.1885
C -3.5339 -0.7359 -1.5164
O -2.4694 -0.8037 -2.1883
O -4.7021 -1.2948 -2.0265
C -4.5649 0.8401 0.1418
C -4.5661 1.4788 1.3942
C -3.5494 1.2119 2.3240
C -2.5245 0.3068 2.0064
Cl -1.2772 -0.0529 3.2083
Cl -3.5619 2.0140 3.8975
Cl -5.8464 2.6264 1.8001
Cl -5.8229 1.2513 -1.0322
C 0.9889 -1.8645 0.1970
C 2.3192 -1.4851 -0.0001
C 5.0411 -0.7043 -0.8510
H 5.5872 1.7323 -0.0907
H 4.1153 1.9614 0.9034
H 4.0811 2.3247 -0.8758
H 1.8494 1.8827 -0.2678
H -0.4539 1.2197 0.0741
H -4.7086 -1.7504 -2.9312
H 0.7617 -2.9154 0.3268
H 3.0723 -2.2606 -0.0096
H 5.9858 -0.2069 -1.1568
H 4.6443 -1.2405 -1.7391
H 5.2772 -1.4330 -0.0476
