29
Molecule 14
C -4.2878 -0.8182 0.8215
O -5.0964 -1.7206 1.1677
O -4.4671 0.4846 1.2788
C -3.1290 -1.1508 -0.0821
N -1.8229 -0.9107 0.5786
N -1.0309 -0.2702 -0.3876
C -1.7760 0.0527 -1.5443
C -3.1773 -0.3461 -1.3993
O -1.2854 0.5639 -2.5859
C 0.3750 -0.0311 -0.1890
C 1.1299 -0.9190 0.5950
C 2.4931 -0.6947 0.8079
C 3.1193 0.4245 0.2458
C 2.3680 1.3266 -0.5172
C 1.0047 1.1030 -0.7323
S 4.8329 0.7136 0.5236
O 5.0049 1.4907 1.7977
O 5.5645 -0.5949 0.6356
O 5.4837 1.5920 -0.7544
H -5.2419 0.7197 1.8874
H -3.1786 -2.2328 -0.3388
H -1.9315 -0.2323 1.3690
H -3.8135 0.5627 -1.3275
H -3.4989 -0.9822 -2.2521
H 0.6647 -1.7928 1.0332
H 3.0583 -1.3926 1.4124
H 2.8339 2.2085 -0.9380
H 0.4416 1.8326 -1.2977
H 5.3627 1.0139 -1.5498
