32
Molecule 8
N 4.6257 1.8969 -2.0079
O 5.8689 1.9624 -1.9186
O 3.9697 2.6813 -2.9269
C 3.8816 1.0147 -1.1648
C 4.4141 0.1795 -0.2025
C 3.3328 -0.4690 0.3562
C 2.2157 0.0085 -0.3102
O 2.5754 0.8994 -1.2061
C 0.8128 -0.3539 -0.0529
N -0.2039 0.4986 -0.2847
N -1.3252 -0.0712 0.1334
C -1.0468 -1.2940 0.6348
C 0.3105 -1.5157 0.5224
C 0.9963 -2.7791 0.8435
O 0.5966 -3.4699 1.8181
N 2.0613 -3.2676 0.0274
C -2.6215 0.5536 0.0283
C -3.7389 0.0452 0.7216
C -4.9863 0.6673 0.6087
C -5.1351 1.8018 -0.1912
C -4.0357 2.3195 -0.8783
C -2.7859 1.7025 -0.7691
H 5.4550 0.0661 0.0702
H 3.3615 -1.1776 1.1726
H -1.7733 -2.0048 1.0047
H 2.5587 -4.1485 0.2858
H 2.3097 -2.7970 -0.8706
H -3.6540 -0.8205 1.3625
H -5.8382 0.2708 1.1459
H -6.1017 2.2814 -0.2764
H -4.1515 3.2001 -1.4970
H -1.9487 2.1194 -1.3139
