34
Molecule 3
C -3.2611 0.3861 -0.0515
C -3.7422 1.5430 -0.9481
C -4.2201 -0.8025 -0.2179
C -3.2513 0.8139 1.4286
O -1.9583 -0.0597 -0.4568
C -0.7847 0.7091 -0.4683
C 0.4968 0.0688 -0.8887
N 1.0941 -0.6217 0.2596
C 2.1455 -1.5746 -0.1337
C 3.3661 -0.9271 -0.8263
C 4.0750 0.1681 -0.0106
C 4.6286 -0.3426 1.3190
O -0.7834 1.9116 -0.0909
H -4.7978 1.8033 -0.7172
H -3.6748 1.2518 -2.0183
H -3.1299 2.4550 -0.7956
H -4.2356 -1.1396 -1.2768
H -5.2546 -0.5257 0.0804
H -3.8874 -1.6567 0.4104
H -4.2828 1.0362 1.7779
H -2.6404 1.7266 1.5824
H -2.8306 0.0017 2.0593
H 1.1878 0.8493 -1.2771
H 0.2760 -0.6500 -1.7083
H 1.4763 0.0794 0.9349
H 2.4833 -2.1260 0.7690
H 1.7133 -2.3412 -0.8135
H 4.1005 -1.7298 -1.0555
H 3.0563 -0.5021 -1.8044
H 4.9252 0.5514 -0.6153
H 3.3957 1.0274 0.1685
H 3.8028 -0.5956 2.0158
H 5.2466 0.4504 1.7904
H 5.2653 -1.2382 1.1566
